NOECHO

RUNSPEC   ======

OIL
GAS
CO2STORE

TABDIMS
  1    1   40   20    1   20  /

DIMENS
1 1 20
/

WELLDIMS
   30   10    2   30 /

START
   1 'JAN' 1990  /

NSTACK
   25 /

EQLDIMS
-- NTEQUL
     1 / 
     

FMTOUT
FMTIN

GRID      ======

DXV
1.0
/

DYV
1.0
/

DZV
20*5.0
/


PORO
20*0.2
/


PERMZ
  20*1.0
/

PERMY
20*100.0
/

PERMX
20*100.0
/

BOX
 1 1 1 1 1 1 /

TOPS
0.0
/

PROPS     ======

SGOF
0   0 1 0.1
0.9 1 0 0.5
/

ROCK
--RefPres  Comp
   1.   5.0E-5 /

SOLUTION  ======

EQUIL
100 150 1000 1* 50 0.2 1* 1* 0
/

RPTSOL
'PRES' 'PGAS' 'SOIL' 'SGAS' 'RS' 'RESTART=2' /

SUMMARY   ======
RUNSUM

SEPARATE

SCHEDULE  ======

TSTEP
1 /

RPTSCHED
'PRES' 'PGAS' 'SOIL' 'SGAS' 'RS' 'RESTART=3' 'NEWTON=2' /


END
