-- Most of the following sections are not actually needed by the test,
-- but it is required by the Eclipse reference manual that they are
-- present. Also, the higher level opm-parser classes
-- (i.e. Opm::EclipseState et al.) assume that they are present.

-------------------------------------
RUNSPEC

WATER
GAS
OIL

METRIC

DIMENS
1 1 10 /

TABDIMS
  1    1   40   20    1   20  /

EQLDIMS
-- NTEQUL
     1 /

GRID

-- Opm::EclipseState assumes that _some_ grid gets defined, so let's
-- specify a fake one...

DXV
1*1 /

DYV
1*1 /

DZV
10*1 /

TOPS
1*0.0 /

PORO
   	10*0.3 /

PERMX
	10*500 /

-------------------------------------
PROPS

PVDO
100 1.0 1.0
200 0.5 1.0
/

PVDG
100 0.05 0.1
200 0.02 0.2
/

PVTW
1.0 1.0 4.0E-5 0.96 0.0
/

SWOF
0 0 1 0
1 1 0 0
/

SGOF
0 0 1 0
1 1 0 0
/

DENSITY
700 1000 10
/

-------------------------------------
SOLUTION

EQUIL
5 150 5 0 2 0 1* 1* 0
/

-------------------------------------
SCHEDULE

TSTEP
1 /

