
RUNSPEC

TITLE
   

DIMENS
   10 10 3 /

EQLDIMS
/

TABDIMS
/

OIL
GAS
WATER
DISGAS

FIELD

START
   1 'JAN' 2015 /

WELLDIMS
   2 1 1 2 /

UNIFOUT

GRID
-- -------------------------------------------------------------------------
NOECHO

DX 
   	300*1000 /
DY
	300*1000 /
DZ
	100*20 100*30 100*50 /

TOPS
	100*8325 /

PORO
   	300*0.3 /

PERMX
	100*500 100*50 100*200 /

PERMY
	100*500 100*50 100*200 /

PERMZ
	100*500 100*50 100*200 /
ECHO

PROPS
-- -------------------------------------------------------------------------
SWOF
0.13	0    		 	1	0
0.18	4.64876033057851E-008	1	0
0.24	0.000000186		0.997	0
0.3	4.18388429752066E-007	0.98	0
0.36	7.43801652892562E-007	0.7	0
0.42	1.16219008264463E-006	0.35	0
0.48	1.67355371900826E-006	0.2	0
0.54	2.27789256198347E-006	0.09	0
0.6	2.97520661157025E-006	0.021	0
0.66	3.7654958677686E-006	0.01	0
0.72	4.64876033057851E-006	0.001	0
0.78	0.000005625		0.0001	0
0.84	6.69421487603306E-006	0	0
0.91	8.05914256198347E-006	0	0
1	0.00001			0	0 /


SGOF
0	0	1	0
0.001	0	1	0
0.02	0	0.997	0
0.05	0.005	0.980	0
0.12	0.025	0.700	0
0.2	0.075	0.350	0
0.25	0.125	0.200	0
0.3	0.190	0.090	0
0.4	0.410	0.021	0
0.45	0.60	0.010	0
0.5	0.72	0.001	0
0.6	0.87	0.0001	0
0.7	0.94	0.000	0
0.85	0.98	0.000	0 
0.88	0.984	0.000	0 /
