-- This reservoir simulation deck is made available under the Open Database
-- License: http://opendatacommons.org/licenses/odbl/1.0/. Any rights in
-- individual contents of the database are licensed under the Database Contents
-- License: http://opendatacommons.org/licenses/dbcl/1.0/


RUNSPEC

START
  26 'MAR' 2014  /

SCHEDULE

TSTEP
1.0 2*5.0  
  /

TSTEP
  7*10.0 14*25.0
 /

TSTEP
  19.0 
  /

TSTEP
  18*13.0
  /

TSTEP
 17*10.0
  /

TSTEP
  13.0
  /

TSTEP
  18.0
  /

TSTEP
  11.0 
  /

TSTEP
  17*5.0
  /

TSTEP
  19*6.0
  /

TSTEP
  21*5.0 /

TSTEP
  5*365000 /

END     ==
