-- =============== RUNSPEC
RUNSPEC
DIMENS
3 3 3 /
EQLDIMS
/
TABDIMS
/
WATER
GAS
CO2STORE
METRIC

-- =============== GRID
GRID
GRIDFILE
0 0 /
DX
27*1 /
DY
27*1 /
DZ
27*1 /
TOPS
9*0 /
PERMX
27*1013.25 /
PORO
27*0.25 /
COPY
PERMX PERMY /
PERMX PERMZ /
/

-- =============== PROPS
PROPS
SGWFN
0.000000E+00 0.000000E+00 1.000000E+00 3.060000E-02
1.000000E+00 1.000000E+00 0.000000E+00 3.060000E-01 /

-- =============== SOLUTION
SOLUTION
RPTRST
'BASIC=0' /
EQUIL
0 300 100 0 0 0 1 1 0 /

-- =============== SCHEDULE
SCHEDULE
RPTRST
'BASIC=0' /
TSTEP
1 /
