RUNSPEC

OIL
GAS
WATER

DIMENS
   10 10  5  /

GRID

DXV
10*1000.0 /

DYV
10*1000.0 /

DZV
10.0 20.0 30.0 10.0 5.0 /

TOPS
   100*10 /

PERMX
   500*0.25 /

COPY
  PERMX PERMY /
  PERMX PERMZ /
/

SCHEDULE

GRUPTREE
 'G1' 'FIELD' /
 'G2' 'FIELD' /
/


WELSPECS
    'INJ1' 'G1'    1  1    8335 'GAS'  /
    'PROD1' 'G2'   10 10    8400 'OIL'  /
/

COMPDAT
    'INJ1'   1  1 1  1 'OPEN' 1   10.6092   0.5  /
    'PROD1'  10 1 1  1 'OPEN' 0   10.6092   0.5  /
/

WEFAC
 'INJ1' 0.5 /
 'PROD1' 0.5 /
/

TSTEP
  14.0 /


WELSPECS
    'INJ2' 'G1'    1  1    8335 'GAS'  /
    'PROD2' 'G2'   10 10    8400 'OIL'  /
/

COMPDAT
    'INJ2'   1  1 1  1 'OPEN' 1   10.6092   0.5  /
    'PROD2'  10 1 1  1 'OPEN' 0   10.6092   0.5  /
/

GCONINJE
'G1' GAS RATE 30000 /
/

GCONPROD
'G2' ORAT 10000 /
/

WEFAC
 'INJ2' 0.8 /
 'PROD2' 1.0 /
/

GEFAC
 'G1' 0.8 /
/

WCONINJE
   'INJ1' 'WATER' 'OPEN' 'RESV' 10 20 40 /
   'INJ2' 'WATER' 'OPEN' 'RESV' 10 20 40 /
/

WCONPROD
   'PROD1' 'OPEN' 'RESV' 999  3* 123 100 /
   'PROD2' 'OPEN' 'RESV' 999  3* 123 100 /
/

TSTEP
  3 /



END
