RUNSPEC

OIL
GAS
WATER

DIMENS
   10 10  5  /

GRID

DXV
10*1000.0 /

DYV
10*1000.0 /

DZV
10.0 20.0 30.0 10.0 5.0 /

TOPS
  100*10 /


SCHEDULE

WELSPECS
    'INJ1' 'G'    1  1    8335 'GAS'  /
    'PROD1' 'G'   10 10    8400 'OIL'  /
/

COMPDAT
    'INJ1'   1  1 1  1 'OPEN' 1   10.6092   0.5  /
    'PROD1'  10 3 3  3 'OPEN' 0   10.6092   0.5  /
/

WCONPROD
     'PROD1' 'OPEN' 'ORAT' 20000  4* 1000 /
/

WCONINJE
     'INJ1' 'GAS' 'OPEN' 'RATE' 100 200 400 /
/


DATES   -- Step1
 1 'FEB' 2000 /
/

WCONPROD
   'PROD1' 'OPEN' 'RESV' 999  3* 123 100 /
/

WCONINJE
   'INJ1' 'WATER' 'OPEN' 'RESV' 10 20 40 /
/


DATES  -- Step2
 1 'MAR' 2000 /
/


WCONPROD 
  'PROD1'  'SHUT' /
/


DATES  -- Step3
 1 'APR' 2000 /
/

WELSPECS
   'NEW'  'G'   2   2  1*       'OIL'  2*      'STOP'  4* /
/

COMPDAT
    'NEW'   2  2 2  2 'OPEN' 1   10.6092   0.5  /
/


WCONHIST
   'NEW'      'OPEN'      'ORAT'      0.000      0.000      0.000  5* /
/



WCONPROD 
  'NEW'  'SHUT' /
/





WCONPROD 
  'PROD1'  'SHUT' /
/





END

