RUNSPEC

OIL
GAS
WATER


DIMENS
   10 10  5  /

GRID

DXV
10*1000.0 /

DYV
10*1000.0 /

DZV
10.0 20.0 30.0 10.0 5.0 /

TOPS
  100*10 / 

PERMX
   500*0.25 /

COPY
  PERMX PERMY /
  PERMX PERMZ /
/

PORO
  500*0.15 / 

SCHEDULE

WELSPECS
    'INJ1' 'G'    1  1    8335 'GAS'  /
    'PROD1' 'G'   10 10    8400 'OIL'  /
    'STOP'  'G'   5  5     8400 'OIL'  /
/

COMPDAT
    'INJ1'   1  1 1  1 'OPEN' 1   10.6092   0.5  /
    'PROD1'  10 3 3  3 'OPEN' 0   10.6092   0.5  /
    'STOP'   5  3 1  3 'OPEN' 0   10.6092   0.5  /
/

WCONHIST
     'STOP' 'STOP' 'GRAT' 0 0 0 /
/

WCONPROD
     'PROD1' 'OPEN' 'ORAT' 20000  4* 1000 /
/

WCONINJE
     'INJ1' 'GAS' 'OPEN' 'RATE' 100 200 400 /
/


WELOPEN
   'INJ1' 'STOP' 5* /
/

TSTEP
  10 /

END
