-- This reservoir simulation deck is made available under the Open Database
-- License: http://opendatacommons.org/licenses/odbl/1.0/. Any rights in
-- individual contents of the database are licensed under the Database Contents
-- License: http://opendatacommons.org/licenses/dbcl/1.0/

-- Copyright (C) 2026 Equinor

-- Valid slave deck (RES-2) for the multi-slave reservoir coupling parse error
-- test. This slave initializes successfully and reports OK status, then waits
-- for the master's go-ahead. When the other slave (RES-1) fails to parse, the
-- master signals abort here and this slave disconnects cleanly. A minimal
-- 1x1x1 single-cell deck (history matching mode, no master groups).

------------------------------------------------------------------------------------------------
RUNSPEC
------------------------------------------------------------------------------------------------

DIMENS
 1 1 1 /

OIL
WATER
GAS
DISGAS
VAPOIL

METRIC

START
 1 'OCT' 2018 /

EQLDIMS
 1 1*  25 /

WELLDIMS
--max.well  max.con/well  max.grup  max.w/grup
 5          10            10        10   /

TABDIMS
--ntsfun     ntpvt  max.nssfun  max.nppvt  max.ntfip  max.nrpvt
  1          1      50          60         72         60 /

UNIFIN
UNIFOUT

------------------------------------------------------------------------------------------------
GRID
------------------------------------------------------------------------------------------------

NEWTRAN

GRIDFILE
 0  1 /

GRIDUNIT
METRES  /

INIT

SPECGRID
 1 1 1 1 F /

COORD
  2000.0000  2000.0000  2000.0000   2000.0000  2000.0000  2002.5000
  2100.0000  2000.0000  2000.0000   2100.0000  2000.0000  2002.5000
  2000.0000  2100.0000  2000.0000   2000.0000  2100.0000  2002.5000
  2100.0000  2100.0000  2000.0000   2100.0000  2100.0000  2002.5000
/

ZCORN
  2000.0000  2000.0000  2000.0000  2000.0000  2002.5000  2002.5000
  2002.5000  2002.5000 /

PORO
 0.25 /

PERMX
 2100 /

COPY
 PERMX PERMY /
 PERMX PERMZ /
/

MULTIPLY
 'PERMZ' 0.1 /
/

------------------------------------------------------------------------------------------------
PROPS
------------------------------------------------------------------------------------------------

NOECHO

INCLUDE
 '../../../include/PVT-WET-GAS.INC' /

INCLUDE
 '../../../include/scal_mod2.inc' /

FILLEPS

------------------------------------------------------------------------------------------------
REGIONS
------------------------------------------------------------------------------------------------

------------------------------------------------------------------------------------------------
SOLUTION
------------------------------------------------------------------------------------------------

RPTRST
 BASIC=2 /

EQUIL
-- Datum    P     woc     Pc   goc      Pc  Rsvd  Rvvd  N
2300.00   300.0  2300.0   0.0  1800.00  0.0   1     1   0 /

PBVD
 2000.0 100.0
 2300.0 100.0 /

PDVD
 2000.0 100.0
 2300.0 100.0 /
/

------------------------------------------------------------------------------------------------
SUMMARY
------------------------------------------------------------------------------------------------

------------------------------------------------------------------------------------------------
SCHEDULE
------------------------------------------------------------------------------------------------

TUNING
 1.0  5.0 /
 /
 /

DATES
 1 NOV 2018 /
/

END
